/*--------------------------------*- C++ -*----------------------------------*\
| =========                 |                                                 |
| \\      /  F ield         | OpenFOAM: The Open Source CFD Toolbox           |
|  \\    /   O peration     | Version:  4.1                                   |
|   \\  /    A nd           | Web:      www.OpenFOAM.org                      |
|    \\/     M anipulation  |                                                 |
\*---------------------------------------------------------------------------*/
FoamFile
{
    version     2.0;
    format      ascii;
    class       dictionary;
    object      blockMeshDict;
}

// * * * * * * * * * * * * * * * * * * * * * * * * * * * * * * * * * * * * * //

convertToMeters 1;

vertices
(

    /*
    (-0.5 0 0)
    (1.5 0 0)
    (1.5  0.5 0)
    (-0.5  0.5 0)
    (-0.5 0 0.5)
    (1.5 0 0.5)
    (1.5  0.5 0.5)
    (-0.5  0.5 0.5)
    */


    
    (-0.5 -0.0001 0)
    (1.5 -0.0001 0)
    (1.5  0.5 0)
    (-0.5  0.5 0)
    (-0.5 -0.0001 0.5)
    (1.5 -0.0001 0.5)
    (1.5  0.5 0.5)
    (-0.5  0.5 0.5)
    
);

blocks
(
    hex (0 1 2 3 4 5 6 7) (150 40 40) simpleGrading (1 1 1)
);

edges
(
);

boundary
(
    top
    {
        type patch;
        faces
        (
            (3 7 6 2)
        );
    }
    ground
    {
        type wall;
        faces
        (
            (1 5 4 0)
        );
    }
    inlet
    {
        type patch;
        faces
        (
            (0 4 7 3)
        );
    }
    outlet
    {
        type patch;
        faces
        (
            (2 6 5 1)
        );
    } 
    symplane
    {
        type patch;
        faces
        (
            (0 3 2 1)
        );
    }
    side
    {
        type patch;
        faces
        (
            (4 5 6 7)
        );
    }
);

// ************************************************************************* //
