/*--------------------------------*- C++ -*----------------------------------*\
| =========                 |                                                 |
| \\      /  F ield         | OpenFOAM: The Open Source CFD Toolbox           |
|  \\    /   O peration     | Version:  5                                     |
|   \\  /    A nd           | Web:      www.OpenFOAM.org                      |
|    \\/     M anipulation  |                                                 |
\*---------------------------------------------------------------------------*/
FoamFile
{
    version     2.0;
    format      ascii;
    class       dictionary;
    object      snappyHexMeshDict;
}
// * * * * * * * * * * * * * * * * * * * * * * * * * * * * * * * * * * * * * //

// Which of the steps to run
castellatedMesh true;
snap            true;
addLayers       true;


// Geometry. Definition of all surfaces. All surfaces are of class
// searchableSurface.
// Surfaces are used
// - to specify refinement for any mesh cell intersecting it
// - to specify refinement for any mesh cell inside/outside/near
// - to 'snap' the mesh boundary to the surface
geometry
{
   
/*    body
    {
        type triSurfaceMesh;
        file "body.stl";
    }
 */  

    left_front_wheel
    {
        type triSurfaceMesh;
        file "left_front_wheel.stl";

    }
    
/*
    left_front_axis
    {
        type triSurfaceMesh;
        file "left_front_axis.stl";
    }
*/
    
    ground
    {
        type triSurfaceMesh;
        file "ground.stl";
    }
    

    /*
    left_rear_wheel
    {
        type triSurfaceMesh;
        file "left_rear_wheel.stl";

    }

    left_rear_axis
    {
        type triSurfaceMesh;
        file "left_rear_axis.stl";
    }
*/
};



// Settings for the castellatedMesh generation.
castellatedMeshControls
{

    // Refinement parameters
    // ~~~~~~~~~~~~~~~~~~~~~

    // If local number of cells is >= maxLocalCells on any processor
    // switches from from refinement followed by balancing
    // (current method) to (weighted) balancing before refinement.
    maxLocalCells 5000;

    // Overall cell limit (approximately). Refinement will stop immediately
    // upon reaching this number so a refinement level might not complete.
    // Note that this is the number of cells before removing the part which
    // is not 'visible' from the keepPoint. The final number of cells might
    // actually be a lot less.
    maxGlobalCells 3000000;

    // The surface refinement loop might spend lots of iterations refining just a
    // few cells. This setting will cause refinement to stop if <= minimumRefine
    // are selected for refinement. Note: it will at least do one iteration
    // (unless the number of cells to refine is 0)
    minRefinementCells 500;

    // Allow a certain level of imbalance during refining
    // (since balancing is quite expensive)
    // Expressed as fraction of perfect balance (= overall number of cells /
    // nProcs). 0=balance always.
    maxLoadUnbalance 0.10;


    // Number of buffer layers between different levels.
    // 1 means normal 2:1 refinement restriction, larger means slower
    // refinement.
    nCellsBetweenLevels 1;



    // Explicit feature edge refinement
    // ~~~~~~~~~~~~~~~~~~~~~~~~~~~~~~~~

    // Specifies a level for any cell intersected by its edges.
    // This is a featureEdgeMesh, read from constant/triSurface for now.
    features
    (
        /*
        {
            file "body.eMesh";
            level 4;
        }
        */
        
        {
            file "left_front_wheel.eMesh";
            level 8;
            //levels    ((0.002 7));
        }
        
        /*
        {
            file "left_front_axis.eMesh";
            level 6;
        }
        
        
*/
        
        
        {
            file "ground.eMesh";
            level 7;
            //levels    ((0.002 7));
        }
        

        /*
        {
            file "left_rear_wheel.eMesh";
            level 6;
        }
        {
            file "left_rear_axis.eMesh";
            level 6;
        }
        */
    );



    // Surface based refinement
    // ~~~~~~~~~~~~~~~~~~~~~~~~

    // Specifies two levels for every surface. The first is the minimum level,
    // every cell intersecting a surface gets refined up to the minimum level.
    // The second level is the maximum level. Cells that 'see' multiple
    // intersections where the intersections make an
    // angle > resolveFeatureAngle get refined up to the maximum level.

    refinementSurfaces
    {

        
        body
        {
            level (4 4);
            patchInfo
            {
                type wall;
            }
        }
        left_front_wheel
        {
            level (5 5);
            patchInfo
            {
                type wall;
            }
        }
        left_front_axis
        {
            level (4 4);
            patchInfo
            {
                type wall;
            }
        }
        left_rear_wheel
        {
            level (4 4);
            patchInfo
            {
                type wall;
            }
        }
        left_rear_axis
        {
            level (4 4);
            patchInfo
            {
                type wall;
            }
        }
        ground
        {
            level (2 2);
            patchInfo
            {
                type wall;
            }
        }

        
    }

    // Resolve sharp angles
    resolveFeatureAngle 30;


    // Region-wise refinement
    // ~~~~~~~~~~~~~~~~~~~~~~

    // Specifies refinement level for cells in relation to a surface. One of
    // three modes
    // - distance. 'levels' specifies per distance to the surface the
    //   wanted refinement level. The distances need to be specified in
    //   descending order.
    // - inside. 'levels' is only one entry and only the level is used. All
    //   cells inside the surface get refined up to the level. The surface
    //   needs to be closed for this to be possible.
    // - outside. Same but cells outside.

    refinementRegions
    {
        /*
        body
        {
            mode distance;
            levels ((0.0125 3));
        }
        */
        
        left_front_wheel
        {
            mode distance;
            levels ((0.01 4));
        }
        
        /*
        left_front_axis
        {
            mode distance;
            levels ((0.01 4));
        }
        left_rear_wheel
        {
            mode distance;
            levels ((0.01 4));
        }
        left_rear_axis
        {
            mode distance;
            levels ((0.01 4));
        }
        */
        
        ground
        {
            mode distance;
            levels ((0.001 2));
        }
        
    }


    // Mesh selection
    // ~~~~~~~~~~~~~~

    // After refinement patches get added for all refinementSurfaces and
    // all cells intersecting the surfaces get put into these patches. The
    // section reachable from the locationInMesh is kept.
    // NOTE: This point should never be on a face, always inside a cell, even
    // after refinement.
    locationInMesh (0 0.49 0.49);


    // Whether any faceZones (as specified in the refinementSurfaces)
    // are only on the boundary of corresponding cellZones or also allow
    // free-standing zone faces. Not used if there are no faceZones.
    allowFreeStandingZoneFaces true;
}



// Settings for the snapping.
snapControls
{
    //- Number of patch smoothing iterations before finding correspondence
    //  to surface
    nSmoothPatch 5;

    //- Relative distance for points to be attracted by surface feature point
    //  or edge. True distance is this factor times local
    //  maximum edge length.
    tolerance 1.0;

    //- Number of mesh displacement relaxation iterations.
    nSolveIter 300;

    //- Maximum number of snapping relaxation iterations. Should stop
    //  before upon reaching a correct mesh.
    nRelaxIter 10;

    // Feature snapping

        //- Number of feature edge snapping iterations.
        //  Leave out altogether to disable.
        nFeatureSnapIter 10;

        //- Detect (geometric only) features by sampling the surface
        //  (default=false).
        implicitFeatureSnap false; //false;

        //- Use castellatedMeshControls::features (default = true)
        explicitFeatureSnap true;

        //- Detect points on multiple surfaces (only for explicitFeatureSnap)
        multiRegionFeatureSnap true;
}



// Settings for the layer addition.
addLayersControls
{
    // Are the thickness parameters below relative to the undistorted
    // size of the refined cell outside layer (true) or absolute sizes (false).
    // relativeSizes true;
    relativeSizes true;	

    // Per final patch (so not geometry!) the layer information
    layers
    {
		
        "body|ground"
        {
            nSurfaceLayers 1;
        }
        
		"left_front_wheel"
        {
            nSurfaceLayers 1;
        }
    }

    // Expansion factor for layer mesh
    expansionRatio 1.15;

    // Wanted thickness of final added cell layer. If multiple layers
    // is the thickness of the layer furthest away from the wall.
    // Relative to undistorted size of cell outside layer.
    // See relativeSizes parameter.
    firstLayerThickness 0.2; 
	
    // Minimum thickness of cell layer. If for any reason layer
    // cannot be above minThickness do not add layer.
    // Relative to undistorted size of cell outside layer.
    minThickness 1e-20; 

    // If points get not extruded do nGrow layers of connected faces that are
    // also not grown. This helps convergence of the layer addition process
    // close to features.
    // Note: changed(corrected) w.r.t 17x! (didn't do anything in 17x)
    nGrow 0;

    // Advanced settings

    // When not to extrude surface. 0 is flat surface, 90 is when two faces
    // are perpendicular
    featureAngle 179;	//179;

    // At non-patched sides allow mesh to slip if extrusion direction makes
    // angle larger than slipFeatureAngle.
    slipFeatureAngle 30;

    // Maximum number of snapping relaxation iterations. Should stop
    // before upon reaching a correct mesh.
    nRelaxIter 10;

    // Number of smoothing iterations of surface normals
    nSmoothSurfaceNormals 5;

    // Number of smoothing iterations of interior mesh movement direction
    nSmoothNormals 10;

    // Smooth layer thickness over surface patches
    nSmoothThickness 10;

    // Stop layer growth on highly warped cells
    maxFaceThicknessRatio 0.5;

    // Reduce layer growth where ratio thickness to medial
    // distance is large
    maxThicknessToMedialRatio 0.7;

    // Angle used to pick up medial axis points
    // Note: changed(corrected) w.r.t 17x! 90 degrees corresponds to 130 in 17x.
    minMedianAxisAngle 90;


    // Create buffer region for new layer terminations
    nBufferCellsNoExtrude 0;

    // Overall max number of layer addition iterations. The mesher will exit
    // if it reaches this number of iterations; possibly with an illegal
    // mesh.
    nLayerIter 10;  //50;
    nRelaxedIter 10;
}



// Generic mesh quality settings. At any undoable phase these determine
// where to undo.
meshQualityControls
{
    #include "meshQualityDict"
/*
    // just for testing
    maxNonOrtho 180;
    maxBoundarySkewness -1; 
    maxInternalSkewness -1;

    maxConcave 180;
    minVol 1e-30;
    minTetQuality 1e-16; 
    minArea -1;

    minTwist 0.05;
    minDeterminant -1; 
    minFaceWeight -1;
    minVolRatio -1;
    minTriangleTwist -1;

    relaxed
    {

    };


    // Advanced

    //- Number of error distribution iterations
    nSmoothScale 4;
    //- Amount to scale back displacement at error points
    errorReduction 0.75;
*/
}


// Advanced

// Write flags
writeFlags
(
    scalarLevels
    layerSets
    layerFields     // write volScalarField for layer coverage
);


// Merge tolerance. Is fraction of overall bounding box of initial mesh.
// Note: the write tolerance needs to be higher than this.
mergeTolerance 1e-6;


// ************************************************************************* //
