/*--------------------------------*- C++ -*----------------------------------*\
| =========                 |                                                 |
| \\      /  F ield         | OpenFOAM: The Open Source CFD Toolbox           |
|  \\    /   O peration     | Version:  3.0.1                                 |
|   \\  /    A nd           | Web:      www.OpenFOAM.org                      |
|    \\/     M anipulation  |                                                 |
\*---------------------------------------------------------------------------*/
FoamFile
{
    version     2.0;
    format      ascii;
    class       dictionary;
    object      surfaceFeatureExtractDict;
}
// * * * * * * * * * * * * * * * * * * * * * * * * * * * * * * * * * * * * * //

extractionMethod	extractFromSurface;

extractFromSurfaceCoeffs
{
    // Mark edges whose adjacent surface normals are at an angle less
    // than includedAngle as features
    // - 0  : selects no edges
    // - 180: selects all edges
    includedAngle   150;
}

trimFeatures
{
    Remove features with fewer than the specified number of edges
   minElem         10;
}

subsetFeatures
{
	// Keep nonManifold edges (edges with >2 connected faces)
    nonManifoldEdges       no;

    // Keep open edges (edges with 1 connected face)
    openEdges       yes;
}

writeObj                yes;

// ************************************************************************* //
